/*--------------------------------*- C++ -*----------------------------------*\
  =========                 |
  \\      /  F ield         | OpenFOAM: The Open Source CFD Toolbox
   \\    /   O peration     | Website:  https://openfoam.com
    \\  /    A nd           | Version:  2306
     \\/     M anipulation  |
\*---------------------------------------------------------------------------*/
FoamFile
{
    version	2.0;
    format      ascii;
    class       dictionary;
    location    "constant";
    object      transportProperties;
}
// * * * * * * * * * * * * * * * * * * * * * * * * * * * * * * * * * * * * * //

#include "physicalProperties";

transportModel	Newtonian;

nu	$nu;
rho	$rho;
TRef	$TRef;
// Prandtl numbers
Pr     $Pr;
Prt    $Prt;
// ************************************************************************* //
